 6

 O                  -0.155830   -0.258785   -0.060238
 H                   0.051593    0.492695    0.502323
 H                   0.427256   -0.173992   -0.834974
 H                  -1.602197   -0.304502   -1.199056
 O                  -1.882545   -0.240064   -2.135491
 H                  -2.466155    0.522046   -2.196824
