   15

 C     0.022750     0.058246     0.010624
 C    -0.014216     0.025978     1.406024
 C     1.210266    -0.027395     2.072816
 C     2.416943    -0.042326     1.380357
 C     2.417238    -0.008858    -0.010280
 C     1.212386     0.041183    -0.705074
 C    -1.321174     0.035392     2.170076
 H     1.207641    -0.059138     3.158753
 H     3.353863    -0.082285     1.925578
 H     3.352193    -0.022005    -0.560281
 H     1.188407     0.067884    -1.788718
 H    -1.106055     0.145718     3.235881
 H    -1.917118     0.904917     1.858871
 O    -2.052269    -1.163789     2.035332
 H    -2.372717    -1.210657     1.126760
